Circuit: * E:\Git\Group Project\HAYES\Sims\Draft5.asc

Early termination of direct N-R iteration.
Direct Newton iteration failed to find .op point.  (Use ".option noopiter" to skip.)
Starting Gmin stepping
Gmin = 10
Gmin = 1.07374
Gmin = 0.115292
Gmin = 0.0123794
Gmin = 0.00132923
Gmin = 0.000142725
Gmin = 1.5325e-005
Gmin = 1.6455e-006
Gmin = 1.76685e-007
Gmin = 1.89714e-008
Gmin = 2.03704e-009
Gmin = 2.18725e-010
Gmin = 2.34854e-011
Gmin = 2.52173e-012
Gmin = 2.70769e-013
Gmin = 0
Gmin stepping succeeded in finding the operating point.


Date: Mon May 26 20:59:08 2025
Total elapsed time: 0.056 seconds.

tnom = 27
temp = 27
method = trap
totiter = 331
traniter = 0
tranpoints = 0
accept = 0
rejected = 0
matrix size = 134
fillins = 222
solver = Normal
Matrix Compiler1:    1135 opcodes
Matrix Compiler2: 16.01 KB object code size  1.0/0.9/[0.7]

