Circuit: * E:\Git\Group Project\HAYES\Sims\Draft5.asc

Direct Newton iteration failed to find .op point.  (Use ".option noopiter" to skip.)
Starting Gmin stepping
Gmin = 10
Gmin = 1.07374
vernier = 0.5
vernier = 0.25
Gmin = 0.281475
vernier = 0.125
vernier = 0.0625
vernier = 0.03125
Gmin = 0.264596
vernier = 0.015625
vernier = 0.0078125
vernier = 0.00390625
vernier = 0.00195313
Gmin = 0.265883
vernier = 0.000976563
vernier = 0.000488281
Gmin = 0
Gmin stepping succeeded in finding the operating point.


Date: Mon May 26 13:18:02 2025
Total elapsed time: 0.131 seconds.

tnom = 27
temp = 27
method = trap
totiter = 1618
traniter = 0
tranpoints = 0
accept = 0
rejected = 0
matrix size = 254
fillins = 452
solver = Normal
Matrix Compiler1:    1812 opcodes
Matrix Compiler2:    2091 opcodes
