Circuit: * E:\Git\Group Project\HAYES\Sims\Draft5.asc

Early termination of direct N-R iteration.
Direct Newton iteration failed to find .op point.  (Use ".option noopiter" to skip.)
Starting Gmin stepping
Gmin = 10
Gmin = 1.07374
Gmin = 0.115292
Gmin = 0.0123794
Gmin = 0.00132923
Gmin = 0.000142725
Gmin = 1.5325e-005
Gmin = 1.6455e-006
Gmin = 1.76685e-007
Gmin = 1.89714e-008
Gmin = 2.03704e-009
Gmin = 2.18725e-010
Gmin = 2.34854e-011
Gmin = 2.52173e-012
Gmin = 2.70769e-013
Gmin = 0
Gmin stepping succeeded in finding the operating point.


Date: Wed May 28 22:40:35 2025
Total elapsed time: 0.479 seconds.

tnom = 27
temp = 27
method = modified trap
totiter = 25772
traniter = 25410
tranpoints = 11158
accept = 10787
rejected = 371
matrix size = 135
fillins = 331
solver = Normal
Thread vector: 10.2/5.2[9] 4.2/1.5[9] 2.7/1.6[6] 0.7/0.7[1]  2592/500
Matrix Compiler1: 29.23 KB object code size  4.6/2.2/[1.6]
Matrix Compiler2: 17.83 KB object code size  1.0/1.7/[0.7]

