Circuit: * E:\Git\Group Project\HAYES\Sims\Draft3.asc

Direct Newton iteration for .op point succeeded.

Date: Mon May 26 14:20:13 2025
Total elapsed time: 0.015 seconds.

tnom = 27
temp = 27
method = trap
totiter = 3
traniter = 0
tranpoints = 0
accept = 0
rejected = 0
matrix size = 11
fillins = 1
solver = Normal
Matrix Compiler1:      25 opcodes
Matrix Compiler2:      69 opcodes
