Circuit: * E:\Git\Group Project\HAYES\Sims\Draft5.asc

Early termination of direct N-R iteration.
Direct Newton iteration failed to find .op point.  (Use ".option noopiter" to skip.)
Starting Gmin stepping
Gmin = 10
Gmin = 1.07374
Gmin = 0.115292
Gmin = 0.0123794
Gmin = 0.00132923
Gmin = 0.000142725
Gmin = 1.5325e-005
Gmin = 1.6455e-006
Gmin = 1.76685e-007
Gmin = 1.89714e-008
Gmin = 2.03704e-009
Gmin = 2.18725e-010
Gmin = 2.34854e-011
Gmin = 2.52173e-012
Gmin = 2.70769e-013
Gmin = 0
Gmin stepping succeeded in finding the operating point.


Date: Thu Jun 05 22:50:05 2025
Total elapsed time: 0.102 seconds.

tnom = 27
temp = 27
method = modified trap
totiter = 4041
traniter = 3702
tranpoints = 1401
accept = 1015
rejected = 386
matrix size = 135
fillins = 231
solver = Normal
Thread vector: 10.6/3.2[9] 4.3/1.5[9] 2.6/1.1[9] 0.4/0.7[1]  2592/500
Matrix Compiler1: 20.62 KB object code size  3.8/1.7/[1.2]
Matrix Compiler2: 16.25 KB object code size  1.1/3.2/[0.7]

