Circuit: * E:\Git\Group Project\HAYES\Sims\Draft2.asc

C7: both pins shorted together -- ignoring.
WARNING: Specified period is not longer than the sum of Trise, Tfall, and Ton for v1.  Increasing period to 0.000102
Direct Newton iteration for .op point succeeded.

Date: Mon May 26 23:01:43 2025
Total elapsed time: 0.094 seconds.

tnom = 27
temp = 27
method = modified trap
totiter = 2241
traniter = 2235
tranpoints = 1115
accept = 1095
rejected = 20
matrix size = 147
fillins = 310
solver = Normal
Thread vector: 9.8/4.4[9] 4.1/1.6[9] 2.5/0.9[9] 0.4/0.7[1]  2592/500
Matrix Compiler1: 23.87 KB object code size  5.0/2.6/[1.3]
Matrix Compiler2: 18.59 KB object code size  1.3/2.0/[0.8]

