Circuit: * E:\Git\Group Project\HAYES\Sims\opampdiscussion.asc

WARNING: Node NC_01 is floating.

WARNING: Less than two connections to node NC_01.  This node is used by C1.
WARNING: Less than two connections to node N004.  This node is used by V1.
Direct Newton iteration for .op point succeeded.
Semiconductor Device Operating Points:
                        --- Diodes ---
Name:    d:u1:2      d:u1:1
Model:    u1:x        u1:x
Id:     -1.65e-12   -1.65e-12
Vd:     -1.65e+00   -1.65e+00
Req:     1.00e-12    1.00e-12
CAP:     0.00e+00    0.00e+00



Date: Wed May 28 22:32:13 2025
Total elapsed time: 0.026 seconds.

tnom = 27
temp = 27
method = trap
totiter = 3
traniter = 0
tranpoints = 0
accept = 0
rejected = 0
matrix size = 12
fillins = 1
solver = Normal
Matrix Compiler1: 482 bytes object code size
Matrix Compiler2: 874 bytes object code size
